Version 4.1
SHEET 1 944 680
WIRE 432 32 352 32
WIRE 96 80 96 32
WIRE 352 96 352 32
WIRE 96 176 96 160
WIRE 96 208 96 176
WIRE 352 272 352 176
WIRE 432 272 352 272
WIRE 96 320 96 272
FLAG 96 32 gp
IOPIN 96 32 BiDir
FLAG 96 320 gn
IOPIN 96 320 BiDir
FLAG 432 32 cp
FLAG 96 176 gc
IOPIN 96 176 BiDir
FLAG 432 272 cn
SYMBOL res 80 64 R0
SYMATTR InstName R1
SYMATTR Value 1k
SYMBOL cap 80 208 R0
SYMATTR InstName C1
SYMATTR Value 200µ
SYMBOL bi 352 96 R0
SYMATTR InstName B1
SYMATTR Value I=V(cp,cn)*({G0}+v(gc,gn)*{G1})
