Version 4.1
SHEET 1 880 680
WIRE 656 -64 160 -64
WIRE -528 0 -688 0
WIRE -528 16 -528 0
WIRE 160 16 160 -64
WIRE 160 16 -384 16
WIRE 656 16 512 16
WIRE 512 32 512 16
WIRE -256 64 -384 64
WIRE 304 64 112 64
WIRE 432 64 304 64
WIRE -528 80 -528 64
WIRE -528 80 -688 80
WIRE 304 80 304 64
WIRE 160 128 160 16
WIRE -688 144 -688 80
WIRE 112 144 112 64
WIRE 112 144 64 144
WIRE 128 144 112 144
WIRE 304 160 304 144
WIRE 304 160 192 160
WIRE 432 160 432 144
WIRE 432 160 304 160
WIRE 480 160 432 160
WIRE 608 160 560 160
WIRE -144 176 -176 176
WIRE -48 176 -144 176
WIRE 128 176 -48 176
WIRE -320 208 -368 208
WIRE -256 208 -256 64
WIRE -176 208 -176 176
WIRE -144 224 -144 176
WIRE -48 224 -48 176
WIRE 64 224 64 144
WIRE 608 224 608 160
WIRE -368 240 -368 208
WIRE -368 352 -368 320
WIRE -144 352 -144 288
WIRE -144 352 -368 352
WIRE -48 352 -48 304
WIRE -48 352 -144 352
WIRE 64 352 64 304
WIRE 64 352 -48 352
WIRE 160 352 160 192
WIRE 160 352 64 352
WIRE 608 352 608 288
WIRE 608 352 160 352
WIRE 160 384 160 352
FLAG 512 32 0
FLAG -688 144 0
FLAG 608 160 ADC
IOPIN 608 160 Out
FLAG 160 384 0
SYMBOL res -64 208 R0
SYMATTR InstName R1
SYMATTR Value 100K
SYMBOL res 48 208 R0
SYMATTR InstName R2
SYMATTR Value {R2}
SYMBOL cap -160 224 R0
SYMATTR InstName C1
SYMATTR Value 100n
SYMBOL res -160 192 R90
WINDOW 0 0 56 VBottom 2
WINDOW 3 32 56 VTop 2
SYMATTR InstName R5
SYMATTR Value 10K
SYMBOL cap 288 80 R0
WINDOW 3 24 36 Left 2
SYMATTR Value {C4}
SYMATTR InstName C4
SYMBOL OpAmps\\LTC1050 160 96 R0
SYMATTR InstName U1
SYMBOL res 416 48 R0
SYMATTR InstName R3
SYMATTR Value 100K
SYMBOL voltage 656 -80 R0
SYMATTR InstName V1
SYMATTR Value 5
SYMBOL res 576 144 R90
WINDOW 0 0 56 VBottom 2
WINDOW 3 32 56 VTop 2
SYMATTR InstName R6
SYMATTR Value 1k
SYMBOL cap 592 224 R0
SYMATTR InstName C2
SYMATTR Value 100n
SYMBOL cap -256 192 R90
WINDOW 0 0 32 VBottom 2
WINDOW 3 38 31 VTop 2
SYMATTR InstName C3
SYMATTR Value 1p
SYMBOL voltage -688 -16 R0
WINDOW 123 24 124 Left 2
WINDOW 39 0 0 Left 0
WINDOW 3 24 152 Left 2
SYMATTR Value2 AC 1
SYMATTR InstName V3
SYMATTR Value PULSE(0 1 0.2 0.1 0.1 2)
SYMBOL voltage -368 224 R0
WINDOW 123 0 0 Left 0
WINDOW 39 0 0 Left 0
SYMATTR InstName V2
SYMATTR Value SINE(0 325 50)
SYMBOL circuit_analogique\\capteur_graphite -432 48 R0
SYMATTR InstName X1
TEXT 40 416 Left 2 !.step param C4 0.5u 2u 0.5u
TEXT 40 488 Left 2 !.param G0 10n
TEXT 40 456 Left 2 !.step param R2 0.5k 2k 0.5k
TEXT 40 528 Left 2 !.param G1 10n
TEXT -248 424 Left 2 !.tran 10
TEXT -248 472 Left 2 !;ac dec 100 1 1G
