Version 4
SHEET 1 880 680
WIRE 432 32 352 32
WIRE 96 80 96 32
WIRE 352 96 352 32
WIRE 96 192 96 160
WIRE 96 208 96 192
WIRE 96 320 96 272
WIRE 352 320 352 176
WIRE 544 320 352 320
FLAG 96 32 gp
IOPIN 96 32 BiDir
FLAG 96 320 gn
IOPIN 96 320 BiDir
FLAG 96 192 gc
IOPIN 96 192 BiDir
FLAG 432 32 cp
FLAG 544 320 cn
SYMBOL res 80 64 R0
SYMATTR InstName R1
SYMATTR Value 1k
SYMBOL cap 80 208 R0
SYMATTR InstName C1
SYMATTR Value 200µ
SYMBOL bi 352 96 R0
SYMATTR InstName B1
SYMATTR Value I=V(cp,cn)*({G0}+v(gc,gn)*{G1})
