Version 4
SHEET 1 880 680
WIRE 656 -64 160 -64
WIRE 672 -64 656 -64
WIRE -528 0 -688 0
WIRE -528 16 -528 0
WIRE 160 16 160 -64
WIRE 160 16 -384 16
WIRE 656 16 512 16
WIRE 512 32 512 16
WIRE -256 64 -384 64
WIRE 304 64 112 64
WIRE 432 64 304 64
WIRE -528 80 -528 64
WIRE -528 80 -688 80
WIRE 304 80 304 64
WIRE 160 128 160 16
WIRE -688 144 -688 80
WIRE 112 144 112 64
WIRE 112 144 64 144
WIRE 128 144 112 144
WIRE 432 144 304 144
WIRE 304 160 304 144
WIRE 304 160 192 160
WIRE 432 160 432 144
WIRE 480 160 432 160
WIRE 608 160 560 160
WIRE -144 176 -176 176
WIRE -48 176 -144 176
WIRE 128 176 -48 176
WIRE -256 208 -256 64
WIRE -176 208 -176 176
WIRE -144 224 -144 176
WIRE -48 224 -48 176
WIRE 64 224 64 144
WIRE 608 224 608 160
WIRE -320 272 -320 208
WIRE -144 304 -144 288
WIRE -48 304 -144 304
WIRE 64 304 -48 304
WIRE 160 304 160 192
WIRE 160 304 64 304
WIRE 608 304 608 288
WIRE 608 304 160 304
WIRE 160 320 160 304
WIRE -144 352 -144 304
WIRE -144 352 -320 352
FLAG 512 32 0
FLAG 160 320 0
FLAG -688 144 0
FLAG 608 160 ADC
IOPIN 608 160 Out
SYMBOL res -64 208 R0
SYMATTR InstName R1
SYMATTR Value 100K
SYMBOL res 48 208 R0
SYMATTR InstName R2
SYMATTR Value {R2}
SYMBOL cap -160 224 R0
SYMATTR InstName C1
SYMATTR Value 100n
SYMBOL res -160 192 R90
WINDOW 0 0 56 VBottom 2
WINDOW 3 32 56 VTop 2
SYMATTR InstName R5
SYMATTR Value 10K
SYMBOL cap 288 80 R0
WINDOW 3 24 36 Left 2
SYMATTR InstName C4
SYMATTR Value {C4}
SYMBOL OpAmps\\LTC1050 160 96 R0
SYMATTR InstName U1
SYMBOL res 416 48 R0
SYMATTR InstName R3
SYMATTR Value 100K
SYMBOL voltage 656 -80 R0
SYMATTR InstName V1
SYMATTR Value 5
SYMBOL res 576 144 R90
WINDOW 0 0 56 VBottom 2
WINDOW 3 32 56 VTop 2
SYMATTR InstName R6
SYMATTR Value 1k
SYMBOL cap 592 224 R0
SYMATTR InstName C2
SYMATTR Value 100n
SYMBOL cap -256 192 R90
WINDOW 0 0 32 VBottom 2
WINDOW 3 38 31 VTop 2
SYMATTR InstName C3
SYMATTR Value 1p
SYMBOL voltage -320 256 R0
WINDOW 123 0 0 Left 0
WINDOW 39 0 0 Left 0
SYMATTR InstName V2
SYMATTR Value SINE(0 325 50)
SYMBOL voltage -688 -16 R0
WINDOW 123 24 124 Left 2
WINDOW 39 0 0 Left 0
SYMATTR Value2 AC 1
SYMATTR InstName V3
SYMATTR Value PULSE(0 1 0.2 0.1 0.1 2)
SYMBOL capteur_graphite -432 48 R0
SYMATTR InstName X2
TEXT -672 408 Left 2 !;ac dec 100 1 1G
TEXT -712 280 Left 2 !.tran 10
TEXT -608 208 Left 2 !.param G0 10n
TEXT -600 248 Left 2 !.param G1 10n
TEXT 40 416 Left 2 !.step param C2 0.5u 2u 0.5u
TEXT 48 448 Left 2 !.step param R2 0.5k 2k 0.5k
